OPT_V10/Two_days_MYC3_SOS/powerflow_results_t42.txt
Pandapower Network Debug Info
==================================================

BUS:
       vm_pu  va_degree      p_mw    q_mvar
0   0.992999   0.160894  0.000802  0.000859
1   0.988563   0.257550  0.001260  0.002332
2   0.984599   0.334731  0.001980  0.002993
3   0.989109   0.273961  0.002175  0.004598
4   0.999890   0.000927  0.009595  0.008360
5   0.999876   0.001015  0.011806  0.008823
6   0.999867   0.001150  0.009800  0.012451
7   0.999932   0.000692  0.000000  0.000000
8   0.999931   0.000698  0.000000  0.000000
9   1.000000   0.000000 -0.037570 -0.045520
10  1.000000   0.000006  0.000000  0.000000
--------------------------------------------------

LINE:
   p_from_mw  q_from_mvar   p_to_mw  q_to_mvar         pl_mw       ql_mvar  i_from_ka   i_to_ka      i_ka  vm_from_pu  va_from_degree  vm_to_pu  va_to_degree  loading_percent
0   0.037560     0.041520 -0.037557  -0.041517  3.066071e-06  2.390666e-06   0.002155  0.002155  0.002155    1.000000        0.000006  0.999932      0.000692         0.936941
1   0.031203     0.029636 -0.031202  -0.029634  1.432243e-06  1.116743e-06   0.001656  0.001656  0.001656    0.999932        0.000692  0.999890      0.000927         0.720211
2   0.006344     0.010882 -0.006269  -0.010824  7.421569e-05  5.786720e-05   0.018182  0.018182  0.018182    0.999931        0.000698  0.992999      0.160894         7.905079
3  -0.021606    -0.021274  0.021607   0.021275  3.180392e-07  2.479804e-07   0.001167  0.001167  0.001167    0.999876        0.001015  0.999890      0.000927         0.507498
4  -0.009800    -0.012451  0.009800   0.012451  1.228216e-07  9.576601e-08   0.000610  0.000610  0.000610    0.999867        0.001150  0.999876      0.001015         0.265200
5  -0.003252    -0.005335  0.003275   0.005353  2.362960e-05  1.842438e-05   0.009122  0.009122  0.009122    0.988563        0.257550  0.992999      0.160894         3.966034
6  -0.002175    -0.004598  0.002192   0.004612  1.765879e-05  1.376885e-05   0.007423  0.007423  0.007423    0.989109        0.273961  0.992999      0.160894         3.227352
7  -0.001980    -0.002993  0.001992   0.003002  1.201655e-05  9.369504e-06   0.005261  0.005261  0.005261    0.984599        0.334731  0.988563      0.257550         2.287255
--------------------------------------------------

TRAFO:
    p_hv_mw  q_hv_mvar   p_lv_mw  q_lv_mvar    pl_mw  ql_mvar   i_hv_ka   i_lv_ka  vm_hv_pu  va_hv_degree  vm_lv_pu  va_lv_degree  loading_percent
0  0.006354   0.011882 -0.006344  -0.010882  0.00001    0.001  0.000519  0.018182  0.999932      0.000692  0.999931      0.000698         0.134746
1  0.037570   0.045520 -0.037560  -0.041520  0.00001    0.004  0.000487  0.002155  1.000000      0.000000  1.000000      0.000006         0.147553
--------------------------------------------------
